5743
     RDKit          3D

 28 31  0  0  1  0  0  0  0  0999 V2000
   -6.8857   -2.7062    1.1187 F   0  0  0  0  0  0  0  0  0  0  0  0
   -8.5279    0.9025   -0.7227 O   0  0  0  0  0  0  0  0  0  0  0  0
   -5.4609   -2.8621   -2.1540 O   0  0  0  0  0  0  0  0  0  0  0  0
   -8.3107    1.4513   -4.0378 O   0  0  0  0  0  0  0  0  0  0  0  0
   -6.1426    2.7342   -3.7447 O   0  0  0  0  0  0  0  0  0  0  0  0
   -4.7945   -6.5838    3.0613 O   0  0  0  0  0  0  0  0  0  0  0  0
   -7.6459   -0.9642   -1.8625 C   0  0  1  0  0  0  0  0  0  0  0  0
   -8.6824   -1.7171   -1.0149 C   0  0  2  0  0  0  0  0  0  0  0  0
   -8.2623   -3.1075   -0.7129 C   0  0  1  0  0  0  0  0  0  0  0  0
   -6.8650   -3.1428   -0.2058 C   0  0  1  0  0  0  0  0  0  0  0  0
   -8.3719    0.3456   -1.9893 C   0  0  1  0  0  0  0  0  0  0  0  0
   -9.8817   -1.5639   -1.8835 C   0  0  0  0  0  0  0  0  0  0  0  0
   -6.3916   -0.9204   -1.0785 C   0  0  0  0  0  0  0  0  0  0  0  0
   -9.7676   -0.1400   -2.4031 C   0  0  1  0  0  0  0  0  0  0  0  0
   -5.8722   -2.3354   -0.9453 C   0  0  2  0  0  0  0  0  0  0  0  0
   -6.4736   -4.6242   -0.1480 C   0  0  1  0  0  0  0  0  0  0  0  0
   -9.2031   -3.6810    0.3027 C   0  0  0  0  0  0  0  0  0  0  0  0
   -7.5101   -1.5705   -3.2223 C   0  0  0  0  0  0  0  0  0  0  0  0
   -8.7699   -4.9708    0.9173 C   0  0  0  0  0  0  0  0  0  0  0  0
   -7.3072   -5.1542    0.9540 C   0  0  0  0  0  0  0  0  0  0  0  0
   -7.7896    1.2694   -2.9592 C   0  0  0  0  0  0  0  0  0  0  0  0
  -10.8351    0.6786   -1.6904 C   0  0  0  0  0  0  0  0  0  0  0  0
   -6.9371   -5.3419   -1.4005 C   0  0  0  0  0  0  0  0  0  0  0  0
   -5.0457   -4.8459   -0.0039 C   0  0  0  0  0  0  0  0  0  0  0  0
   -6.7592   -5.7803    1.9766 C   0  0  0  0  0  0  0  0  0  0  0  0
   -6.5453    2.0082   -2.6476 C   0  0  0  0  0  0  0  0  0  0  0  0
   -4.4780   -5.4678    1.0082 C   0  0  0  0  0  0  0  0  0  0  0  0
   -5.3310   -5.9771    2.0724 C   0  0  0  0  0  0  0  0  0  0  0  0
 10  1  1  1
 11  2  1  1
 15  3  1  6
  4 21  2  0
  5 26  1  0
  6 28  2  0
  7  8  1  0
  7 11  1  0
  7 13  1  0
  7 18  1  6
  8  9  1  0
  8 12  1  6
  9 10  1  0
  9 17  1  1
 10 15  1  0
 10 16  1  0
 11 14  1  0
 11 21  1  0
 12 14  1  0
 13 15  1  0
 14 22  1  1
 16 20  1  0
 16 23  1  6
 16 24  1  0
 17 19  1  0
 19 20  1  0
 20 25  2  0
 21 26  1  0
 24 27  2  0
 25 28  1  0
 27 28  1  0
M  END
>  <PUBCHEM_COMPOUND_CID>  (1) 
5743

>  <PUBCHEM_CONFORMER_RMSD>  (1) 
0.8

>  <PUBCHEM_CONFORMER_DIVERSEORDER>  (1) 
1
2

>  <PUBCHEM_MMFF94_PARTIAL_CHARGES>  (1) 
24
1 -0.34
10 0.34
11 0.34
15 0.28
16 0.28
19 0.14
2 -0.68
20 -0.28
21 0.45
24 -0.29
25 -0.14
26 0.34
27 -0.14
28 0.54
3 -0.68
4 -0.57
5 -0.68
50 0.4
51 0.15
52 0.4
53 0.15
56 0.15
57 0.4
6 -0.57

>  <PUBCHEM_EFFECTIVE_ROTOR_COUNT>  (1) 
3.4

>  <PUBCHEM_PHARMACOPHORE_FEATURES>  (1) 
12
1 2 acceptor
1 2 donor
1 3 acceptor
1 3 donor
1 4 acceptor
1 5 acceptor
1 5 donor
1 6 acceptor
5 7 8 11 12 14 rings
6 16 20 24 25 27 28 rings
6 7 8 9 10 13 15 rings
6 9 10 16 17 19 20 rings

>  <PUBCHEM_HEAVY_ATOM_COUNT>  (1) 
28

>  <PUBCHEM_ATOM_DEF_STEREO_COUNT>  (1) 
8

>  <PUBCHEM_ATOM_UDEF_STEREO_COUNT>  (1) 
0

>  <PUBCHEM_BOND_DEF_STEREO_COUNT>  (1) 
0

>  <PUBCHEM_BOND_UDEF_STEREO_COUNT>  (1) 
0

>  <PUBCHEM_ISOTOPIC_ATOM_COUNT>  (1) 
0

>  <PUBCHEM_COMPONENT_COUNT>  (1) 
1

>  <PUBCHEM_CACTVS_TAUTO_COUNT>  (1) 
9

>  <PUBCHEM_CONFORMER_ID>  (1) 
0000166F00000001

>  <PUBCHEM_MMFF94_ENERGY>  (1) 
98.3968

>  <PUBCHEM_FEATURE_SELFOVERLAP>  (1) 
61.002

>  <PUBCHEM_SHAPE_FINGERPRINT>  (1) 
10863032 1 18411991260314631359
10906281 52 18187661214667282980
11132069 177 18409452496250108550
11370993 70 18343865506619410939
11405975 8 18187368735256385840
11961588 58 13038608679331392464
12035758 1 18187656760881402577
12236239 1 17894627088776528032
12403259 118 18411417353683243082
12403814 3 17821727247689132117
12422481 6 18410289182092219874
12553582 1 18338817691685769637
12616971 3 17240205442951728652
12633257 1 17530965799632769070
13140716 1 18409730621131625450
13224815 77 18340214080238301326
13583140 156 17703787063293749195
13782708 43 14707504602517032393
14178342 30 18410014359508030727
14790565 3 17978236277147951892
15196674 1 18411702114257408574
15238133 3 18337963298210864413
15375358 24 18343866614784056079
15788980 27 17168139061447545292
15840311 113 17842569448957707473
1601671 61 18410579482920970076
16945 1 18271535225482107806
17349148 13 18410285938959225838
17980427 23 18260544580555700572
1813 80 17168145624632288820
19141452 34 18407760339470540567
20511986 3 17988065713040351075
20600515 1 18409739443242339341
20691752 17 17385725806893397222
20715895 44 18267303136528939713
21033648 29 17846205674863202099
21304253 335 18340495465062994509
21421861 104 17969493819603009570
21452121 103 18272367538704814954
21859007 373 17607233273713118261
22182313 1 18116992178670497404
23402539 116 18260540156396461146
23559900 14 18271255923985864862
296302 2 16487255491226663950
335352 9 18339929199220598142
34797466 226 16415200117296645773
34934 24 18271803497455219143
350125 39 18268435809867863219
3633792 109 18199742554033994285
3680242 22 18263081024641596618
392239 28 17702945984306911914
4340502 62 18202565055451984144
460360 51 18269575899776835923
5104073 3 18334294313976731088
59755656 215 18343025441888212862
633830 44 17168153367973117174
7064713 232 18411419522683893268
9709674 26 18271251521127655487
9981440 41 18412547600619865851

>  <PUBCHEM_SHAPE_MULTIPOLES>  (1) 
539.61
11.22
2.54
1.4
1.3
0.58
0.24
-2.28
-4.28
-1.81
-0.04
0.64
-0.2
0.29

>  <PUBCHEM_SHAPE_SELFOVERLAP>  (1) 
1173.076

>  <PUBCHEM_SHAPE_VOLUME>  (1) 
295.4

>  <PUBCHEM_COORDINATE_TYPE>  (1) 
2
5
10

$$$$
